
model basic -ndm 2 -ndf 3
# source definitions
source definitions.tcl

# beam_column_elements dispBeamColumn
# Geometric transformation command
geomTransf PDelta 279
element dispBeamColumn 279 130 165 279 Lobatto 28 5
# Geometric transformation command
geomTransf PDelta 280
element dispBeamColumn 280 165 166 280 Lobatto 28 5
# Geometric transformation command
geomTransf PDelta 281
element dispBeamColumn 281 166 131 281 Lobatto 28 5
# Geometric transformation command
geomTransf PDelta 282
element dispBeamColumn 282 131 167 282 Lobatto 26 5
# Geometric transformation command
geomTransf PDelta 283
element dispBeamColumn 283 167 168 283 Lobatto 26 5
# Geometric transformation command
geomTransf PDelta 284
element dispBeamColumn 284 168 169 284 Lobatto 26 5
# Geometric transformation command
geomTransf PDelta 285
element dispBeamColumn 285 169 170 285 Lobatto 26 5
# Geometric transformation command
geomTransf PDelta 286
element dispBeamColumn 286 170 171 286 Lobatto 26 5
# Geometric transformation command
geomTransf PDelta 287
element dispBeamColumn 287 171 132 287 Lobatto 26 5
# Geometric transformation command
geomTransf PDelta 288
element dispBeamColumn 288 133 134 288 Lobatto 63 5
# Geometric transformation command
geomTransf PDelta 289
element dispBeamColumn 289 134 135 289 Lobatto 63 5
# Geometric transformation command
geomTransf PDelta 290
element dispBeamColumn 290 136 137 290 Lobatto 63 5
# Geometric transformation command
geomTransf PDelta 291
element dispBeamColumn 291 137 133 291 Lobatto 63 5
# Geometric transformation command
geomTransf PDelta 292
element dispBeamColumn 292 135 138 292 Lobatto 63 5
# Geometric transformation command
geomTransf PDelta 293
element dispBeamColumn 293 138 139 293 Lobatto 63 5
# Geometric transformation command
geomTransf PDelta 294
element dispBeamColumn 294 140 141 294 Lobatto 63 5
# Geometric transformation command
geomTransf PDelta 295
element dispBeamColumn 295 141 142 295 Lobatto 63 5
# Geometric transformation command
geomTransf PDelta 296
element dispBeamColumn 296 142 143 296 Lobatto 63 5
# Geometric transformation command
geomTransf PDelta 297
element dispBeamColumn 297 143 144 297 Lobatto 63 5
# Geometric transformation command
geomTransf PDelta 298
element dispBeamColumn 298 139 145 298 Lobatto 63 5
# ... 63 like lines cut

model basic -ndm 2 -ndf 2
# source definitions
source definitions.tcl

# quadrilateral_elements quad
element quad 195 1 2 3 4 0.0255 PlaneStrain 30 0.0 0.0 0.0 -16817.0
element quad 196 1 4 5 6 0.0255 PlaneStrain 30 0.0 0.0 0.0 -16817.0
element quad 197 6 7 8 1 0.0255 PlaneStrain 30 0.0 0.0 0.0 -16817.0
element quad 198 8 9 2 1 0.0255 PlaneStrain 30 0.0 0.0 0.0 -16817.0
element quad 199 4 3 10 11 0.0255 PlaneStrain 30 0.0 0.0 0.0 -16817.0
element quad 200 4 11 12 5 0.0255 PlaneStrain 30 0.0 0.0 0.0 -16817.0
element quad 201 7 13 14 8 0.0255 PlaneStrain 30 0.0 0.0 0.0 -16817.0
element quad 202 14 15 9 8 0.0255 PlaneStrain 30 0.0 0.0 0.0 -16817.0
element quad 203 11 10 16 17 0.0255 PlaneStrain 30 0.0 0.0 0.0 -16817.0
element quad 204 11 17 18 12 0.0255 PlaneStrain 30 0.0 0.0 0.0 -16817.0
element quad 205 13 19 20 14 0.0255 PlaneStrain 30 0.0 0.0 0.0 -16817.0
element quad 206 20 21 15 14 0.0255 PlaneStrain 30 0.0 0.0 0.0 -16817.0
element quad 207 17 16 22 23 0.0255 PlaneStrain 30 0.0 0.0 0.0 -16817.0
element quad 208 17 23 24 18 0.0255 PlaneStrain 30 0.0 0.0 0.0 -16817.0
element quad 209 19 25 26 20 0.0255 PlaneStrain 30 0.0 0.0 0.0 -16817.0
element quad 210 26 27 21 20 0.0255 PlaneStrain 30 0.0 0.0 0.0 -16817.0
element quad 211 23 22 28 29 0.0255 PlaneStrain 30 0.0 0.0 0.0 -16817.0
element quad 212 23 29 30 24 0.0255 PlaneStrain 30 0.0 0.0 0.0 -16817.0
element quad 213 25 31 32 26 0.0255 PlaneStrain 30 0.0 0.0 0.0 -16817.0
element quad 214 32 33 27 26 0.0255 PlaneStrain 30 0.0 0.0 0.0 -16817.0
# ... 64 like lines cut

# zero_length_elements zeroLength
node 172 0 0.7 0
equalDOF 164 172 1 2

# material parallel generated by zeroLength distributed
uniaxialMaterial Parallel 65 31 -factors 1.0
element zeroLength 364 172 78 -mat 65 -dir 1 -orient 1.0 0.0 0.0 0.0 1.0 0.0
node 173 0 0.67 0
equalDOF 162 173 1 2

# material parallel generated by zeroLength distributed
uniaxialMaterial Parallel 66 32 -factors 1.0
element zeroLength 365 173 66 -mat 66 -dir 1 -orient 1.0 0.0 0.0 0.0 1.0 0.0
node 174 0 0.6425 0
equalDOF 143 174 1 2

# material parallel generated by zeroLength distributed
uniaxialMaterial Parallel 67 33 -factors 1.0
element zeroLength 366 174 54 -mat 67 -dir 1 -orient 1.0 0.0 0.0 0.0 1.0 0.0
node 175 0 0.6175 0
equalDOF 141 175 1 2

# material parallel generated by zeroLength distributed
uniaxialMaterial Parallel 68 34 -factors 1.0
element zeroLength 367 175 42 -mat 68 -dir 1 -orient 1.0 0.0 0.0 0.0 1.0 0.0
node 176 0 0.5925 0
equalDOF 145 176 1 2

# material parallel generated by zeroLength distributed
uniaxialMaterial Parallel 69 35 -factors 1.0
element zeroLength 368 176 30 -mat 69 -dir 1 -orient 1.0 0.0 0.0 0.0 1.0 0.0
node 177 0 0.5675 0
equalDOF 138 177 1 2

# material parallel generated by zeroLength distributed
uniaxialMaterial Parallel 70 36 -factors 1.0
element zeroLength 369 177 18 -mat 70 -dir 1 -orient 1.0 0.0 0.0 0.0 1.0 0.0
node 178 0 0.5425 0
equalDOF 134 178 1 2

# material parallel generated by zeroLength distributed
uniaxialMaterial Parallel 71 37 -factors 1.0
element zeroLength 320 178 5 -mat 71 -dir 1 -orient 1.0 0.0 0.0 0.0 1.0 0.0
node 179 0 0.5175 0
equalDOF 137 179 1 2

# material parallel generated by zeroLength distributed
uniaxialMaterial Parallel 72 38 -factors 1.0
element zeroLength 370 179 7 -mat 72 -dir 1 -orient 1.0 0.0 0.0 0.0 1.0 0.0
node 180 0 0.4925 0
equalDOF 161 180 1 2

# material parallel generated by zeroLength distributed
uniaxialMaterial Parallel 73 39 -factors 1.0
element zeroLength 371 180 19 -mat 73 -dir 1 -orient 1.0 0.0 0.0 0.0 1.0 0.0
node 181 0 0.4675 0
equalDOF 154 181 1 2

# material parallel generated by zeroLength distributed
uniaxialMaterial Parallel 74 40 -factors 1.0
element zeroLength 372 181 31 -mat 74 -dir 1 -orient 1.0 0.0 0.0 0.0 1.0 0.0
node 182 0 0.4425 0
equalDOF 160 182 1 2

# material parallel generated by zeroLength distributed
uniaxialMaterial Parallel 75 41 -factors 1.0
element zeroLength 373 182 43 -mat 75 -dir 1 -orient 1.0 0.0 0.0 0.0 1.0 0.0
node 183 0 0.4175 0
equalDOF 158 183 1 2

# material parallel generated by zeroLength distributed
uniaxialMaterial Parallel 76 42 -factors 1.0
element zeroLength 374 183 55 -mat 76 -dir 1 -orient 1.0 0.0 0.0 0.0 1.0 0.0
node 184 0 0.3925 0
equalDOF 156 184 1 2

# material parallel generated by zeroLength distributed
uniaxialMaterial Parallel 77 43 -factors 1.0
element zeroLength 375 184 67 -mat 77 -dir 1 -orient 1.0 0.0 0.0 0.0 1.0 0.0
node 185 0 0.3675 0
equalDOF 151 185 1 2

# material parallel generated by zeroLength distributed
uniaxialMaterial Parallel 78 44 -factors 1.0
element zeroLength 376 185 79 -mat 78 -dir 1 -orient 1.0 0.0 0.0 0.0 1.0 0.0
node 186 0 0.3425 0
equalDOF 149 186 1 2

# material parallel generated by zeroLength distributed
uniaxialMaterial Parallel 79 45 -factors 1.0
element zeroLength 377 186 88 -mat 79 -dir 1 -orient 1.0 0.0 0.0 0.0 1.0 0.0
node 187 0 0.3175 0
equalDOF 147 187 1 2

# material parallel generated by zeroLength distributed
uniaxialMaterial Parallel 80 46 -factors 1.0
element zeroLength 378 187 94 -mat 80 -dir 1 -orient 1.0 0.0 0.0 0.0 1.0 0.0
